/*--------------------------------*- C++ -*----------------------------------*\
| =========                 |                                                 |
| \\      /  F ield         | OpenFOAM: The Open Source CFD Toolbox           |
|  \\    /   O peration     | Version:  1.7.1                                 |
|   \\  /    A nd           | Web:      www.OpenFOAM.com                      |
|    \\/     M anipulation  |                                                 |
\*---------------------------------------------------------------------------*/
FoamFile
{
    version     2.0;
    format      ascii;
    class       dictionary;
    location    "system";
    object      controlDict;
}
// * * * * * * * * * * * * * * * * * * * * * * * * * * * * * * * * * * * * * //

application     scalarTransportFoam;

startFrom       startTime;

startTime       0;

stopAt          endTime;

endTime         3;

deltaT          1;

writeControl    timeStep;

writeInterval   1;

purgeWrite      0;

writeFormat     ascii;

writePrecision  6;

writeCompression uncompressed;

timeFormat      general;

timePrecision   6;

runTimeModifiable yes;

functions
{
readFields
    {
        libs ( "libfieldFunctionObjects.so" );
        type            readFields;
        fields          ( gradTx gradTy);
    }
    sample1
    {
        type        sets;
        libs        ("libsampling.so");
        writeControl onEnd;
        setFormat   raw;
        sets
        (
            line1
            {
                type        face;   
                axis        y;

                // Slightly perturbed so as not to align with face or edge
                start       (0.5    0.0 0.00501);
                end         (0.5    1.0 0.00501);
                nPoints     200;
            }
        );
        interpolationScheme cellPoint;
        fields          (T gradTy gradTx);
    }
}



// ************************************************************************* //
