/*--------------------------------*- C++ -*----------------------------------*\
| =========                 |                                                 |
| \\      /  F ield         | OpenFOAM: The Open Source CFD Toolbox           |
|  \\    /   O peration     | Version:  2.1.x                                 |
|   \\  /    A nd           | Web:      www.OpenFOAM.org                      |
|    \\/     M anipulation  |                                                 |
\*---------------------------------------------------------------------------*/
FoamFile
{
    version     2.0;
    format      ascii;
    class       dictionary;
    location    "system";
    object      fvSchemes;
}
// * * * * * * * * * * * * * * * * * * * * * * * * * * * * * * * * * * * * * //

ddtSchemes
{
    default         none;  
}

gradSchemes
{
    default         none;
//    grad(T)         edgeCellsLeastSquares;
//    grad(T)         Gauss linear;
    grad(T)         cellLimited Gauss linear 1.0;
}

divSchemes
{
    default         none;
    //div(phi,T)      Gauss upwind; 
    //div(phi,T)      Gauss linear; 
    //div(phi,T)      Gauss LUST grad(T);
    //div(phi,T)      Gauss linearUpwind grad(T);
    div(phi,T)      Gauss linearUpwind grad(T);
}

laplacianSchemes
{
    default         none;
    laplacian(DT,T) Gauss linear corrected;
}

interpolationSchemes
{
    default         none;//linear;
}

snGradSchemes
{
    default         corrected;
}

fluxRequired
{
    default         no;
    T               ;
}


// ************************************************************************* //
