/*--------------------------------*- C++ -*----------------------------------*\
| =========                 |                                                 |
| \\      /  F ield         | OpenFOAM: The Open Source CFD Toolbox           |
|  \\    /   O peration     | Version:  1.7.1                                 |
|   \\  /    A nd           | Web:      www.OpenFOAM.com                      |
|    \\/     M anipulation  |                                                 |
\*---------------------------------------------------------------------------*/
FoamFile
{
    version     2.0;
    format      ascii;
    class       dictionary;
    location    "system";
    object      fvSchemes;
}
// * * * * * * * * * * * * * * * * * * * * * * * * * * * * * * * * * * * * * //

ddtSchemes
{
//    default         Euler;
    default         steadyState;
}

gradSchemes
{
    default         leastSquares;
    //default         Gauss linear;
//    grad(U)         cellLimited Gauss linear 1;
}

divSchemes
{
    default         none;
//    div(phi,T)      Gauss upwind;
//    div(phi,T)      Gauss linear;
//    div(phi,T)      Gauss linearUpwind grad(U);
//    div(phi,T)      Gauss vanLeer;
}

laplacianSchemes
{
    default         none;
 //   laplacian(DT,T) Gauss linear corrected;
}

interpolationSchemes
{
    default         linear;
}

snGradSchemes
{
    default         corrected;
}

fluxRequired
{
    default         no;
    T               ;
}


// ************************************************************************* //
